36
Crystal created from CIF file. Box vectors: a=    7.78000    0.00000    0.00000 b=    7.78000    7.78000    0.00000 c=   -3.05238   -4.62040    5.46473
O           -1.687335   2.368499   2.852587
O           -1.165366  -0.044633   4.098545
O            1.259073  -1.297376   3.650437
O            3.362570   0.167310   2.612139
O            2.840601   2.580442   1.366182
O            4.928550  -2.314226   3.972856
O            5.737562   1.842756   0.131153
O            2.231287   6.309883   0.797850
O           -3.253315   4.850034   1.491870
O           -4.062328   0.693052   5.333573
O            0.416162   3.833185   1.814289
O           -0.556052  -3.774075   4.666877
H            3.456568   3.383291   1.415364
H           -0.080649   4.364811   1.109340
H           -2.371254   2.746443   3.497425
H           -1.781333  -0.847482   4.049362
H            1.755884  -1.829002   4.355387
H            1.955809   3.031175   1.535588
H           -0.345569   3.292534   2.191355
H           -1.488889   1.491227   3.306160
H           -0.280574  -0.495366   3.929138
H            2.020803  -0.756726   3.273371
H            4.384194  -2.690708   3.207795
H            5.870287   2.008333   1.120269
H            2.131059   5.675327   0.016394
H           -2.708960   5.226516   2.256932
H           -4.195053   0.527476   4.344458
H            4.114488  -2.498356   4.563047
H            5.587542   0.861967   0.377066
H            3.074579   5.784556   1.038298
H           -2.439253   5.034165   0.901680
H           -3.912308   1.673841   5.087661
H            4.046489  -0.210634   1.967302
H            3.164123   1.044582   2.158567
H           -0.455824  -3.139518   5.448332
H           -1.399344  -3.248748   4.426429
